Version 4
SHEET 1 2380 680
WIRE 336 -336 336 -368
WIRE -512 -144 -592 -144
WIRE -288 -96 -288 -160
WIRE -208 -96 -288 -96
WIRE -432 -80 -432 -144
WIRE -368 -80 -432 -80
WIRE -208 -80 -368 -80
WIRE -208 -64 -288 -64
WIRE 64 -64 16 -64
WIRE 96 -64 64 -64
WIRE -432 -16 -432 -80
WIRE 192 0 160 0
WIRE 256 0 240 0
WIRE 304 0 256 0
WIRE 560 0 304 0
WIRE -288 16 -288 -64
WIRE 304 16 304 0
WIRE 16 64 16 -64
WIRE -48 112 -48 96
WIRE -48 112 -272 112
WIRE -16 112 -48 112
WIRE 160 144 160 0
WIRE 160 144 128 144
WIRE 240 144 160 144
WIRE 368 144 240 144
WIRE 480 144 448 144
WIRE -16 176 -80 176
WIRE 1392 192 1184 192
WIRE 1440 192 1392 192
WIRE 1536 192 1520 192
WIRE 1184 256 1184 192
WIRE 1248 256 1184 256
WIRE 240 272 240 144
WIRE 368 272 240 272
WIRE 480 272 480 144
WIRE 480 272 432 272
WIRE 1296 272 1296 256
WIRE 1248 288 1248 256
WIRE 1264 288 1248 288
WIRE 1536 304 1536 192
WIRE 1536 304 1328 304
WIRE 1152 320 1152 288
WIRE 1264 320 1152 320
WIRE 16 352 16 224
WIRE -272 400 -272 112
WIRE 480 400 480 272
WIRE 480 400 -272 400
WIRE 1296 400 1296 336
WIRE -1088 448 -1088 432
WIRE -1088 544 -1088 528
FLAG -80 176 0
FLAG -592 -64 0
FLAG -496 -16 0
FLAG -48 96 SUM
FLAG 128 144 VOUT
FLAG -288 -160 SUM
FLAG -288 16 OPT
FLAG -1088 544 0
FLAG -1088 432 OPT
FLAG -368 -80 BIAS
FLAG 336 -256 0
FLAG 336 -368 VDD
FLAG 96 -64 vdd
FLAG 64 0 0
FLAG 528 -272 0
FLAG 528 -352 -2.5
FLAG 16 352 -2.5
FLAG 304 96 0
FLAG 560 0 TIA_out
FLAG 1152 288 TIA_out
FLAG 1536 304 buffer_out
FLAG 1296 400 -2.5
FLAG 1296 256 vdd
FLAG 1392 272 0
SYMBOL OpAmps\\LTC6268 16 144 R0
SYMATTR InstName U1
SYMBOL KPDE030 -160 -80 R0
SYMATTR InstName X1
SYMATTR Prefix X
SYMATTR Value KPDE030
SYMATTR SpiceModel KPDE030
SYMBOL voltage -592 -160 R0
WINDOW 123 0 0 Left 0
WINDOW 39 24 44 Left 2
SYMATTR InstName V2
SYMATTR Value 2.5
SYMBOL cap -432 -32 R90
WINDOW 0 0 32 VBottom 2
WINDOW 3 32 32 VTop 2
SYMATTR InstName C1
SYMATTR Value 10n
SYMBOL voltage -1088 432 R0
WINDOW 123 24 124 Left 2
WINDOW 39 0 0 Left 0
SYMATTR InstName V1
SYMATTR Value PWL(0n 0.437u 10n 0.437u 20n 0.437u 30n 0.437u 40n 0.437u 50n 0.437u 60n 0.437u 70n 0.437u 80n 0.437u 90n 0.195u 100n 0.195u 110n 0.195u 120n 0.195u 130n 0.195u 140n 0.195u 150n 0.437u 160n 0.437u 170n 0.195u 180n 0.437u 190n 0.195u 200n 0.437u 210n 0.195u)
SYMATTR Value2 AC 1
SYMBOL res -416 -160 R90
WINDOW 0 0 56 VBottom 2
WINDOW 3 32 56 VTop 2
SYMATTR InstName R1
SYMATTR Value 100k
SYMBOL voltage 336 -352 R0
WINDOW 123 0 0 Left 0
WINDOW 39 0 0 Left 0
SYMATTR InstName V3
SYMATTR Value 2.5
SYMBOL cap 48 -64 R0
SYMATTR InstName C2
SYMATTR Value 0.5µ
SYMBOL res 464 128 R90
WINDOW 0 0 56 VBottom 2
WINDOW 3 32 56 VTop 2
SYMATTR InstName R2
SYMATTR Value 5k
SYMBOL cap 432 256 R90
WINDOW 0 0 32 VBottom 2
WINDOW 3 32 32 VTop 2
SYMATTR InstName C3
SYMATTR Value 0.5p
SYMBOL voltage 528 -368 R0
WINDOW 123 0 0 Left 0
WINDOW 39 0 0 Left 0
SYMATTR InstName V4
SYMATTR Value -2.5
SYMBOL cap 256 -16 R90
WINDOW 0 0 32 VBottom 2
WINDOW 3 32 32 VTop 2
SYMATTR InstName C4
SYMATTR Value 10n
SYMBOL res 288 0 R0
SYMATTR InstName R3
SYMATTR Value 10k
SYMBOL OpAmps\\LT6201 1296 304 R0
SYMATTR InstName U3
SYMBOL res 1376 176 R0
SYMATTR InstName R4
SYMATTR Value 1k
SYMBOL res 1536 176 R90
WINDOW 0 0 56 VBottom 2
WINDOW 3 32 56 VTop 2
SYMATTR InstName R5
SYMATTR Value 2k
TEXT -416 -232 Left 2 !.include "KPDE030.lib"
TEXT -696 240 Left 2 !;.ac dec 100 10k 1G
TEXT -946 446 Left 2 !.tran 2u
